Pcp_File_Version=3
      1
Welcome to HYDRUS-1D
  
   NOBB     MIT iWeight
     66      50       1
  lWatF  lChemF    NMat   lTempF
      t       f       1       f
  Model   Hysteresis
      %MODELID%       0
   thr     ths    Alfa      n         Ks       l    thrIm     thsIm    Omega
      %THETAR%    %THETAS%   %ALPHA%     %N%       %KSAT%     %L%       %THRIM%     %THSIM%       %OMEGA% 
      0       0       0       0          0       0       0       0          0 
      0       0       0       0          0       0       0       0          0 
      0       0       0       0          0       1       0       0          1 
      HO(N)         FOS   ITYPE(N) POS     WTS
          15         -205     1     1        1 
          30     -86.4248     1     1        1 
          45     -31.3731     1     1        1 
          60     -34.8749     1     1        1 
          75     -35.9081     1     1        1 
          90     -32.5786     1     1        1 
         105     -31.6028     1     1        1 
         120     -35.3341     1     1        1 
         135     -37.9747     1     1        1 
         150     -41.4191     1     1        1 
         165     -53.4742     1     1        1 
         180     -57.4925     1     1        1 
         195     -56.5166     1     1        1 
         210     -51.9816     1     1        1 
         225     -55.6556     1     1        1 
         240     -52.6705     1     1        1 
         255     -55.1389     1     1        1 
         270     -58.2962     1     1        1 
         285     -58.4684     1     1        1 
         300     -58.0092     1     1        1 
         315     -59.4443     1     1        1 
         330     -61.6831     1     1        1 
         345     -66.5052     1     1        1 
         360     -75.0586     1     1        1 
         375     -75.5752     1     1        1 
         390     -67.1366     1     1        1 
         405     -71.8439     1     1        1 
         420      -75.403     1     1        1 
         435     -77.9862     1     1        1 
         450     -71.3846     1     1        1 
         465      -72.992     1     1        1 
         480     -74.9437     1     1        1 
         495     -77.1251     1     1        1 
         510     -78.0436     1     1        1 
         525     -81.6028     1     1        1 
         540       -86.31     1     1        1 
         555       -86.31     1     1        1 
         570     -85.5063     1     1        1 
         585     -84.5304     1     1        1 
         600     -87.7451     1     1        1 
         615     -89.4673     1     1        1 
         630     -89.5247     1     1        1 
         645     -88.0322     1     1        1 
         660     -88.0896     1     1        1 
         675      -89.008     1     1        1 
         690     -89.5247     1     1        1 
         705     -90.0413     1     1        1 
         720      -90.558     1     1        1 
         735     -90.0413     1     1        0 
         750      -90.845     1     1        0 
         765     -91.5339     1     1        0 
         780     -92.0505     1     1        0 
         795     -92.9116     1     1        0 
         810     -93.4856     1     1        0 
         825     -94.0023     1     1        0 
         840     -94.8634     1     1        0 
         855     -96.0689     1     1        0 
         870     -97.1022     1     1        0 
         885     -98.0781     1     1        0 
         900     -99.1114     1     1        0 
         915     -100.087     1     1        0 
         930     -100.834     1     1        0 
         945     -101.637     1     1        0 
         960     -102.211     1     1        0 
         975     -103.072     1     1        0 
         990     -104.163     1     1        0 
end*** END OF INPUT FILE 'FIT.IN' **********************************
